Version 4
SHEET 1 2168 680
WIRE -128 -640 -128 -704
WIRE 0 -640 0 -704
WIRE -128 -512 -128 -560
WIRE 0 -512 0 -560
WIRE 688 -320 688 -416
WIRE 656 -208 528 -208
WIRE 768 -176 736 -176
WIRE 1120 -176 928 -176
WIRE 1328 -176 1120 -176
WIRE 1504 -176 1408 -176
WIRE 1712 -176 1504 -176
WIRE 32 -144 -112 -144
WIRE 224 -144 32 -144
WIRE 656 -144 304 -144
WIRE 1120 -128 1120 -176
WIRE 1504 -112 1504 -176
WIRE -112 -64 -112 -144
WIRE 1120 -32 1120 -48
WIRE 1120 -32 960 -32
WIRE 1120 0 1120 -32
WIRE 1504 0 1504 -48
WIRE 688 16 688 -32
WIRE 528 64 528 -208
WIRE 960 64 960 -32
WIRE 960 64 528 64
WIRE -112 80 -112 16
WIRE 1120 96 1120 80
FLAG -128 -512 0
FLAG 0 -512 0
FLAG -128 -704 v+
FLAG 0 -704 v-
FLAG -112 80 0
FLAG 688 -416 v+
FLAG 688 16 v-
FLAG 1120 96 0
FLAG 1712 -176 Vout2
FLAG 32 -144 Vin
FLAG 1504 0 0
SYMBOL voltage -128 -656 R0
WINDOW 123 0 0 Left 2
WINDOW 39 0 0 Left 2
SYMATTR InstName V1
SYMATTR Value 2.5
SYMBOL voltage 0 -656 R0
WINDOW 123 0 0 Left 2
WINDOW 39 0 0 Left 2
SYMATTR InstName V2
SYMATTR Value -2.5
SYMBOL voltage -112 -80 R0
WINDOW 123 24 124 Left 2
WINDOW 39 0 0 Left 2
SYMATTR Value2 AC 1
SYMATTR InstName Vin_source
SYMATTR Value ""
SYMBOL Opamps\\LTC2057 816 -176 R0
SYMATTR InstName U2
SYMBOL res 1104 -144 R0
SYMATTR InstName Rf1
SYMATTR Value 9900
SYMBOL res 1104 -16 R0
SYMATTR InstName Rg1
SYMATTR Value 100
SYMBOL res 320 -160 R90
WINDOW 0 0 56 VBottom 2
WINDOW 3 32 56 VTop 2
SYMATTR InstName R1
SYMATTR Value 10
SYMBOL res 1424 -192 R90
WINDOW 0 0 56 VBottom 2
WINDOW 3 32 56 VTop 2
SYMATTR InstName R2
SYMATTR Value {r}
SYMBOL cap 1488 -112 R0
SYMATTR InstName C1
SYMATTR Value .01µ
TEXT -232 376 Left 2 !.noise V(Vout2) Vin_source lin 16383 62.5 2.048Meg
TEXT 1856 -200 Left 2 ;LTC2348 in +/-5V mode:\n109uVRMS total noise
TEXT -232 432 Left 2 !.MEAS NOISE integ (V(Vout2)) from 62.5 to 2048000
TEXT -264 296 Left 2 ;.step param r 100 1000 100
TEXT -264 256 Left 2 !.param r = 1000
